#================================================

region forbox block 0 1000 0 1000 0 1000 units box
#Refers to an abstract geometric region of space. units box refers to the fact that the size of the box is specified in the units as given in the units command. The name "forbox" refers to the region ID so that you can refer to it somewhere else in this input script.
create_box 1 forbox #Create the box
Created orthogonal box = (0.0000000 0.0000000 0.0000000) to (1000.0000 1000.0000 1000.0000)

#=======================================================================
#lattice fcc 0.0458 # Since we have given fcc as lattice type no need to mention basis for this
#=======================================================================

variable n_atoms equal round(8042.72)
create_atoms 1 random 8043 30122 NULL
Created 8043 atoms
# create_atoms 1 region forbox qrand 0.03289889035
# set type 1 diameter 1.42
mass 1 39.948 #Mass of atom type 1 is 39.948 [mass units grams/mole]
neighbor 0.1 bin
neigh_modify delay 10 check no

pair_style lj/cut 10
# k_B = 8.6173303e-5 eV/K #How are atoms interacting. Provide the name of the potential and the cooresponding cut-off distance
pair_coeff  1 1 0.0163 3.405 #The coefficient of the lj potential for the interactions of atom type 1 with 1
#=======================================================================
group ar type 1 #Group all the argon types (argon type is of type 1). All atoms of type 1 are in group with the name 'ar'
8043 atoms in group ar
#=======================================================================
dump dump_1 all custom 1 dump_initial_config.dump id type x y z ix iy iz vx vy vz
#=========================================================
run 1
  update every 1 steps, delay 10 steps, check no
Step Temp E_pair E_mol TotEng Press
0            0    22.564256            0    22.564256   0.15331168
Loop time of 0.0536773 on 1 procs for 1 steps with 8043 atoms

undump dump_1 # Stop dumping to this file
#=======================================================
minimize 1e-25 1e-19 10000 10000 #<Minimize the energy using a conjugate gradient step.
Step Temp E_pair E_mol TotEng Press
1            0    22.564256            0    22.564256   0.15331168
Loop time of 23.3481 on 1 procs for 10000 steps with 8043 atoms

Minimization stats:
  Stopping criterion = max force evaluations
  Energy initial, next-to-last, final =
  Force two-norm initial, final = 116.35781 0.00077391086
  Force max component initial, final = 50.242715 0.00036660982
  Final line search alpha, max atom move = 1.0000000 0.00036660982
  Iterations, force evaluations = 10000 10000

print "Finished Minimizing"
Finished Minimizing
#minimize etol ftol maxiter for minimizer maxiter for force_energy valuation
variable ener equal pe
#=========================================================
timestep  0.01
velocity all create 900 102939 #dist gaussian mom yes rot yes
# Set the velocities of all the atoms so that the temperature of the system is T. Make the distribution Gaussian.
# fix 1 all nve #this is equlibration process.
fix 1 all nvt temp 900.0 900.0 1
# fix temperature
print "Fixing"
Fixing
# compute 1 all property/atom vx vy vz
compute 1 all pressure thermo_temp ke
# compute 1 all temp/region forbox

dump dump_1 all custom 100 trj.lammpsdump id type x y z ix iy iz vx vy vz #<Dump all the atoms to the file dump.min>
variable poten equal pe--2.07142467943205
thermo_style  custom step time temp pe ke enthalpy press vol v_poten
#What to print in the logfile.txt
#=========================================================
thermo 100 #How frequently to print the thermodynamic information#
run 10000000 # run with active settings as many runs as required. timestep*No. of. steps =10ps
Step Time Temp PotEng KinEng Enthalpy Press Volume v_poten
10001        0.001          900   -2.0714247    935.55908    1557.1922   0.99928471        1e+09 4.4408921e-15
Averages over the last 785 of 1569 rows, steps 88400 to 166800:
Temp PotEng KinEng Enthalpy Press Volume v_poten
900.122 -0.193932 935.686 1559.43 0.999665 1e+09 1.87749
